powerflow/Codes/PF_Formulation/resultados_csv/barras.csv
caso,script,bus_id,vm_pu,va_rad,pd_pu,qd_pu,pg_pu,qg_pu,bus_type
3bus.pwf,14,1,1.0999988133713337,-1.504632769052528e-35,0.0,0.0,0.15571405828163642,0.030263482604644537,3
3bus.pwf,14,2,1.0999988058203352,-3.893074844978427e-10,0.0,0.0,0.15571398170934392,0.03026341771817725,2
3bus.pwf,14,3,1.06977012690718,-0.018370806035323522,0.3039,0.05329,0.0,0.0,1
3bus_DBSH.pwf,14,1,0.9692867404603668,0.0,0.0,0.0,0.1660462890080975,0.21353745145347394,3
3bus_DBSH.pwf,14,2,0.9692867426818569,-2.305608509665867e-9,0.0,0.0,0.16604629083107422,0.2135374869068105,2
3bus_DBSH.pwf,14,3,0.9000035090890657,0.011186230538641269,0.3039,0.05329,0.0,0.0,1
3bus_DCER.pwf,14,1,0.9692867404603668,0.0,0.0,0.0,0.1660462890080975,0.21353745145347394,3
3bus_DCER.pwf,14,2,0.9692867426818569,-2.305608509665867e-9,0.0,0.0,0.16604629083107422,0.2135374869068105,2
3bus_DCER.pwf,14,3,0.9000035090890657,0.011186230538641269,0.3039,0.05329,0.0,0.0,1
3bus_DCSC.pwf,14,1,1.0998303614226108,4.437320484981475e-38,0.0,0.0,0.0002521208133204407,0.01417164467603848,3
3bus_DCSC.pwf,14,2,1.099830348230714,-1.1063663742614477e-10,0.0,0.0,0.00025212081337181526,0.014176161267547765,2
3bus_DCSC.pwf,14,3,1.0975488646479474,0.002088962849725369,0.3039,0.05329,0.30345588984332655,0.025,2
3bus_DCline.pwf,14,1,1.0999974596555666,2.712005118689205e-38,0.0,0.0,0.2653187702546974,-0.7039952531042485,3
3bus_DCline.pwf,14,2,1.099997461630666,1.6758030235038096e-7,0.0,0.0,0.04610928966446631,-2.863848319581424,2
3bus_DCline.pwf,14,3,1.0697687376247615,-0.01837076937668969,0.3039,0.05329,0.0,0.0,1
3bus_shunt_fields.pwf,14,1,0.9417673980295587,-1.8478255398245915e-36,0.0,0.0,0.1847238384709932,0.26267559461674167,3
3bus_shunt_fields.pwf,14,2,0.900516630956906,0.0416043421956725,0.0,0.0,0.14446551872117938,0.0,2
3bus_shunt_fields.pwf,14,3,0.9000106885063848,-0.023446184566957035,0.3039,0.05329,0.0,0.0,1
3busfrank.pwf,14,1,1.099999147490245,-4.513898307157584e-36,0.0,0.0,0.23238081925273563,0.12407935110483881,3
3busfrank.pwf,14,2,1.099999147490245,-2.6818491901277173e-17,0.0,0.0,0.23238081925273538,0.12407935110483907,2
3busfrank.pwf,14,3,1.0422629177789977,-0.01567973785124248,0.444,0.22820000000000001,0.0,0.0,1
3busfrank_continuous_shunt.pwf,14,1,1.0999985191891464,0.0,0.0,0.0,0.23008142553447564,0.23475998362251932,3
3busfrank_continuous_shunt.pwf,14,2,1.0999985191891464,1.7964559280156115e-18,0.0,0.0,0.23008142553447555,0.23475998362251918,2
3busfrank_continuous_shunt.pwf,14,3,1.0625022494828427,0.0010512897073889909,0.444,0.22820000000000001,0.0,0.0,1
3busfrank_qlim.pwf,14,1,1.0999998827908624,-3.71499406667493e-37,0.0,0.0,0.3137338620479533,0.5608948975330189,3
3busfrank_qlim.pwf,14,2,1.0999998909417619,4.861675263269088e-8,0.0,0.0,0.3137344024365713,0.560894483794646,2
3busfrank_qlim.pwf,14,3,0.9606009822088698,0.04443021129472291,0.5039,1.003,0.0,0.0,1
5busfrank.pwf,14,1,1.0999993081843873,-4.513898307157584e-36,0.0,0.0,0.23792028800083453,0.1488554149842263,3
5busfrank.pwf,14,2,1.0999993081843873,-4.649551452554224e-17,0.0,0.0,0.23792028800083406,0.14885541498422672,2
5busfrank.pwf,14,3,1.0373875837088864,-0.012667918573595163,0.444,0.22820000000000001,0.0,0.0,1
5busfrank.pwf,14,4,1.0281064935173077,-0.0060659921099838025,0.0039000000000000003,0.0232,0.0,0.0,1
5busfrank.pwf,14,5,1.023466782922815,-0.002720148511776923,0.0039000000000000003,0.0232,0.0,0.0,1
5busfrank_cphs.pwf,14,1,1.0999994724593745,-7.224870946725644e-36,0.0,0.0,0.2923367250629452,0.08404919057586333,3
5busfrank_cphs.pwf,14,2,1.0999995046281197,3.6955720271693673e-9,0.0,0.0,0.2923370756429805,0.12034941511670787,2
5busfrank_cphs.pwf,14,3,1.0331980279243864,-0.025592723387670383,0.5039,0.10300000000000001,0.0,0.0,1
5busfrank_cphs.pwf,14,4,1.0059920311966766,-0.015135619999109791,0.0239,0.053,0.0,0.0,1
5busfrank_cphs.pwf,14,5,0.9923244325942819,-0.009691777896313643,0.0239,0.053,0.0,0.0,1
5busfrank_ctaf.pwf,14,1,1.0999994724593745,2.9525004495440117e-35,0.0,0.0,0.2923367250629446,0.08404919057586382,3
5busfrank_ctaf.pwf,14,2,1.0999995046281197,3.6955721373840768e-9,0.0,0.0,0.29233707564298095,0.12034941511670798,2
5busfrank_ctaf.pwf,14,3,1.0331980279243864,-0.025592723387670328,0.5039,0.10300000000000001,0.0,0.0,1
5busfrank_ctaf.pwf,14,4,1.0059920311966764,-0.015135619999109734,0.0239,0.053,0.0,0.0,1
5busfrank_ctaf.pwf,14,5,0.9923244325942816,-0.009691777896313581,0.0239,0.053,0.0,0.0,1
5busfrank_ctap.pwf,14,1,1.0999994724593745,2.9525004495440117e-35,0.0,0.0,0.2923367250629446,0.08404919057586382,3
5busfrank_ctap.pwf,14,2,1.0999995046281197,3.6955721373840768e-9,0.0,0.0,0.29233707564298095,0.12034941511670798,2
5busfrank_ctap.pwf,14,3,1.0331980279243864,-0.025592723387670328,0.5039,0.10300000000000001,0.0,0.0,1
5busfrank_ctap.pwf,14,4,1.0059920311966764,-0.015135619999109734,0.0239,0.053,0.0,0.0,1
5busfrank_ctap.pwf,14,5,0.9923244325942816,-0.009691777896313581,0.0239,0.053,0.0,0.0,1
9bus.pwf,14,1,1.0999994360749565,-1.1455584447600071e-29,0.0,0.0,1.5765197671928135,0.12096431911664947,3
9bus.pwf,14,2,1.0975122015893035,-0.051323067798029386,0.0,0.0,0.8809631159752397,-0.02353807399335669,2
9bus.pwf,14,3,1.087570426809174,-0.05553453546716501,0.0,0.0,0.715675144293975,-0.21810114487898316,2
9bus.pwf,14,4,1.0967764957276773,-0.07533941244632114,0.0,0.0,0.0,0.0,1
9bus.pwf,14,5,1.0755725788464185,-0.14017270293440662,1.25,0.5,0.0,0.0,1
9bus.pwf,14,6,1.0872942304687576,-0.1257327878264068,0.9,0.3,0.0,0.0,1
9bus.pwf,14,7,1.0999972432955165,-0.09694644847950402,0.0,0.0,0.0,0.0,1
9bus.pwf,14,8,1.0894853548926267,-0.12878500923275116,1.0,0.35,0.0,0.0,1
9bus.pwf,14,9,1.0999981785289317,-0.09059786779364087,0.0,0.0,0.0,0.0,1
9bus_transformer_fields.pwf,14,1,1.0999995735493262,-1.0159871124044262e-30,0.0,0.0,1.5684423973512254,0.08254254585954086,3
9bus_transformer_fields.pwf,14,2,1.0999977031189532,-0.050959575595073636,0.0,0.0,0.8794555118832298,-0.0472064922763343,2
9bus_transformer_fields.pwf,14,3,1.0982186614224054,-0.05512385040154956,0.0,0.0,0.7251947517004229,-0.1732752311267272,2
9bus_transformer_fields.pwf,14,4,1.0987511442654097,-0.07481771632380992,0.0,0.0,0.0,0.0,1
9bus_transformer_fields.pwf,14,5,1.0783152475850557,-0.13929526084228475,1.25,0.5,0.0,0.0,1
9bus_transformer_fields.pwf,14,6,1.0916046204300252,-0.1248447961040243,0.9,0.3,0.0,0.0,1
9bus_transformer_fields.pwf,14,7,1.1038115192825395,-0.09624470753862399,0.0,0.0,0.0,0.0,1
9bus_transformer_fields.pwf,14,8,1.0952512740188414,-0.1277949642919301,1.0,0.35,0.0,0.0,1
9bus_transformer_fields.pwf,14,9,1.1081402889568366,-0.09005050656992429,0.0,0.0,0.0,0.0,1
300bus.pwf,15,1,1.0235655150670506,0.965714759462354,0.9,0.49,0.0,0.0,1
300bus.pwf,15,2,1.0322580803463937,0.9804902403753804,0.56,0.15,0.0,0.0,1
300bus.pwf,15,3,0.983363246491882,0.9800343613525209,0.2,0.0,0.0,0.0,1
300bus.pwf,15,4,1.0073043507451924,0.9192181658697521,0.0,0.0,0.0,0.0,1
300bus.pwf,15,5,1.0137600170141463,0.9432229181676783,3.53,1.3,0.0,0.0,1
300bus.pwf,15,6,1.026926571170569,0.9720389892303636,1.2,0.41,0.0,0.0,1
300bus.pwf,15,7,0.9820147374525116,0.977617842829636,0.0,0.0,0.0,0.0,1
300bus.pwf,15,8,1.014,0.8619745877998668,0.58,0.14,0.0,0.8540798546622363,2
300bus.pwf,15,9,1.0001059124626235,0.9031955839523398,0.96,0.43,0.0,0.0,1
300bus.pwf,15,10,1.019,0.8807469926502254,1.48,0.33,-5.169878828456423e-26,0.3252894585903233,2
300bus.pwf,15,11,1.004609126074359,0.8889824920427047,0.83,0.21,0.0,0.0,1
300bus.pwf,15,12,0.9894793961522995,0.9527492965122902,0.0,0.0,0.0,0.0,1
300bus.pwf,15,13,0.9962814220794792,0.8382551762252457,0.58,0.1,0.0,0.0,1
300bus.pwf,15,14,0.9767003294951995,0.6789436802429023,1.6,0.6,0.0,0.0,1
300bus.pwf,15,15,1.004947334012892,0.5553010857611246,1.2670000000000001,0.23,0.0,0.0,1
300bus.pwf,15,16,0.9859125614598893,0.6823619181234999,0.0,0.0,0.0,0.0,1
300bus.pwf,15,17,1.0521329454297987,0.46156620351298305,5.61,2.2,0.0,0.0,1
300bus.pwf,15,19,0.9686416051663065,0.855251536997091,0.0,0.0,0.0,0.0,1
300bus.pwf,15,20,0.999,0.8068482433564758,5.95,1.2,0.0,0.5337390676705409,2
300bus.pwf,15,21,0.9683436742479581,0.8780677284286619,0.77,0.01,0.0,0.0,1
300bus.pwf,15,22,0.9945391924005645,0.8152920772200809,0.81,0.23,0.0,0.0,1
300bus.pwf,15,23,1.0493852504785743,0.9184420139800644,0.21,0.07,0.0,0.0,1
300bus.pwf,15,24,1.003032080834126,0.9550132385837088,0.0,0.0,0.0,0.0,1
300bus.pwf,15,25,1.022484095737271,0.8747995813871382,0.45,0.12,0.0,0.0,1
300bus.pwf,15,26,0.9974435758942768,0.8193652715426675,0.28,0.09,0.0,0.0,1
300bus.pwf,15,27,0.973502024031316,0.7641028236618282,0.69,0.13,0.0,0.0,1
300bus.pwf,15,33,0.9963853053047592,0.3152853090040723,0.55,0.06,0.0,0.0,1
300bus.pwf,15,34,1.0019871520968324,0.46807508062056585,0.0,0.0,0.0,0.0,1
300bus.pwf,15,35,0.9735864453136646,0.15629585952413916,0.0,0.0,0.0,0.0,1
300bus.pwf,15,36,0.9925258240522415,0.2120496084182119,0.0,0.0,0.0,0.0,1
300bus.pwf,15,37,0.9901052768209776,0.2833000438305554,0.85,0.32,0.0,0.0,1
300bus.pwf,15,38,0.9918931284622424,0.2982018965423199,1.55,0.18,0.0,0.0,1
300bus.pwf,15,39,1.021623976788508,0.5169096263925687,0.0,0.0,0.0,0.0,1
300bus.pwf,15,40,0.9958988646458803,0.2945307231882103,0.46,-0.21,0.0,0.0,1
300bus.pwf,15,41,1.0023730823723043,0.32533174205440846,0.86,0.0,0.0,0.0,1
300bus.pwf,15,42,1.0065906304683163,0.4869562648295438,0.0,0.0,0.0,0.0,1
300bus.pwf,15,43,0.9782524019798434,0.27157070115712656,0.39,0.09,0.0,0.0,1
300bus.pwf,15,44,0.988244767939949,0.2968079798072867,1.95,0.29,0.0,0.0,1
300bus.pwf,15,45,0.9938832329286668,0.3615630858693094,0.0,0.0,0.0,0.0,1
300bus.pwf,15,46,1.0038051958595997,0.4100662407496042,0.0,0.0,0.0,0.0,1
300bus.pwf,15,47,0.9631133379975371,0.1997324796437226,0.58,0.11800000000000001,0.0,0.0,1
300bus.pwf,15,48,0.9834099839201715,0.2901975735217638,0.41,0.19,0.0,0.0,1
300bus.pwf,15,49,1.0139195429852623,0.05019375724382749,0.92,0.26,0.0,0.0,1
300bus.pwf,15,51,0.9891249285839611,0.20886784626186797,-0.05,0.05,0.0,0.0,1
300bus.pwf,15,52,0.9674909344828341,0.24926281049708535,0.61,0.28,0.0,0.0,1
300bus.pwf,15,53,0.9737040116577708,0.25822786641337925,0.69,0.03,0.0,0.0,1
300bus.pwf,15,54,0.983656905569248,0.2858337591023837,0.1,0.01,0.0,0.0,1
300bus.pwf,15,55,0.9917402879855624,0.3229464914941341,0.22,0.1,0.0,0.0,1
300bus.pwf,15,57,1.0245013571667487,0.5102316343011994,0.98,0.2,0.0,0.0,1
300bus.pwf,15,58,0.9901511386128509,0.5947786108261736,0.14,0.01,0.0,0.0,1
300bus.pwf,15,59,0.9777183623976364,0.6227959322134664,2.18,1.06,0.0,0.0,1
300bus.pwf,15,60,0.9940903694449694,0.5053820090502701,0.0,0.0,0.0,0.0,1
300bus.pwf,15,61,0.9888621949758769,0.662090946622332,2.27,1.1,0.0,0.0,1
300bus.pwf,15,62,1.004158720641318,0.7351586847887499,0.0,0.0,0.0,0.0,1
300bus.pwf,15,63,0.958,0.41990095158180796,0.7,0.3,0.0,0.34920418069502374,2
300bus.pwf,15,64,0.9424452308635339,0.5072463883706851,0.0,0.0,0.0,0.0,1
300bus.pwf,15,69,0.9602274006855644,0.15830737641286094,0.0,0.0,0.0,0.0,1
300bus.pwf,15,70,0.9475805213084548,-0.009839389896383695,0.56,0.2,0.0,0.0,1
300bus.pwf,15,71,0.9758513403092969,0.0829842387914731,1.16,0.38,0.0,0.0,1
300bus.pwf,15,72,0.9672416000454207,0.12541009188108934,0.57,0.19,0.0,0.0,1
300bus.pwf,15,73,0.9691311715900903,0.15694393075837582,2.24,0.71,0.0,0.0,1
300bus.pwf,15,74,0.9824123925773848,0.22446093348575108,0.0,0.0,0.0,0.0,1
300bus.pwf,15,76,0.963,0.14102853697152537,2.08,1.07,0.0,0.6540545097931889,2
300bus.pwf,15,77,0.9818890137645916,0.16991065288700907,0.74,0.28,0.0,0.0,1
300bus.pwf,15,78,0.9879733654798507,0.18553955962170648,0.0,0.0,0.0,0.0,1
300bus.pwf,15,79,0.978229415537608,0.16980389762908343,0.48,0.14,0.0,0.0,1
300bus.pwf,15,80,0.9851512434256042,0.1698488696643149,0.28,0.07,0.0,0.0,1
300bus.pwf,15,81,1.0206936319889917,0.2787126435610986,0.0,0.0,0.0,0.0,1
300bus.pwf,15,84,1.025,0.30598787112849624,0.37,0.13,3.75,1.3880346679272682,2
300bus.pwf,15,85,0.9786522155414639,0.3426786891341632,0.0,0.0,0.0,0.0,1
300bus.pwf,15,86,0.9771768114937347,0.42687140363539616,0.0,0.0,0.0,0.0,1
300bus.pwf,15,87,0.9686877931184241,0.6058549520082845,0.0,0.0,0.0,0.0,1
300bus.pwf,15,88,1.0030148046447829,0.2420118342404143,0.0,0.0,0.0,0.0,1
300bus.pwf,15,89,1.0122869320630348,0.42759962594203316,0.442,0.0,0.0,0.0,1
300bus.pwf,15,90,1.006531551908333,0.36241819837662376,0.66,0.0,0.0,0.0,1
300bus.pwf,15,91,1.052,0.48395352915026496,0.174,0.0,1.55,0.737867609896526,2
300bus.pwf,15,92,1.052,0.48711187159844616,0.158,0.0,2.9,0.520344836757083,2
300bus.pwf,15,94,0.979527090226928,0.5580507514531303,0.603,0.0,0.0,0.0,1
300bus.pwf,15,97,1.0142832755772146,0.4194836472928475,0.39899999999999997,0.0,0.0,0.0,1
300bus.pwf,15,98,1.0,0.401656797834495,0.667,0.0,0.68,-0.03029395852246201,2
300bus.pwf,15,99,0.9887126677258422,0.28172674539438275,0.835,0.0,0.0,0.0,1
300bus.pwf,15,100,1.0030757587220707,0.4040985294314355,0.0,0.0,0.0,0.0,1
300bus.pwf,15,102,0.9966702857163104,0.39443742135418597,0.778,0.0,0.0,0.0,1
300bus.pwf,15,103,1.023922436458147,0.4030387071271811,0.32,0.0,0.0,0.0,1
300bus.pwf,15,104,0.9921887516376497,0.34939565104267667,0.086,0.0,0.0,0.0,1
300bus.pwf,15,105,1.0171116537303813,0.37827731345629967,0.496,0.0,0.0,0.0,1
300bus.pwf,15,107,1.0000938059993119,0.3156299103967915,0.046,0.0,0.0,0.0,1
300bus.pwf,15,108,0.99,0.2819765654602902,1.121,0.0,1.17,0.4064396341566505,2
300bus.pwf,15,109,0.9707846128640909,0.16558476227179733,0.307,0.0,0.0,0.0,1
300bus.pwf,15,110,0.9706926952367416,0.19127069916332012,0.63,0.0,0.0,0.0,1
300bus.pwf,15,112,0.970137380873536,0.11672600694535497,0.196,0.0,0.0,0.0,1
300bus.pwf,15,113,0.9585488993335396,0.16538528910243966,0.262,0.0,0.0,0.0,1
300bus.pwf,15,114,0.9723017802919443,0.11805867976980733,0.182,0.0,0.0,0.0,1
300bus.pwf,15,115,0.9200058883142832,1.2670675564527987,0.0,0.0,0.0,0.0,1
300bus.pwf,15,116,0.9802074932644814,1.3949944740594864,0.0,0.0,0.0,0.0,1
300bus.pwf,15,117,0.9101765055904458,1.5016335349109131,0.0,0.0,0.0,0.0,1
300bus.pwf,15,118,0.9051064598220118,1.521568139962959,0.141,6.5,0.0,0.0,1
300bus.pwf,15,119,1.044,1.779159045480188,0.0,0.0,19.3,6.65398498972737,2
300bus.pwf,15,120,0.998,1.722385051533595,0.0,0.0,0.0,0.0,1
300bus.pwf,15,121,0.8495152230304616,1.326176509892907,5.35,0.55,0.0,0.0,1
300bus.pwf,15,122,0.8977386218316546,1.2261060099503145,2.291,0.11800000000000001,0.0,0.0,1
300bus.pwf,15,123,0.92085229207886,1.1387083635706523,0.78,0.013999999999999999,0.0,0.0,1
300bus.pwf,15,124,0.963,1.33712213026449,2.764,0.593,2.4,1.1695047101606386,2
300bus.pwf,15,125,0.945,0.9566772539063276,5.148,0.8270000000000001,-5.169878828456423e-26,1.9068461175709122,2
300bus.pwf,15,126,0.945222415067429,1.038578557835314,0.579,0.051,0.0,0.0,1
300bus.pwf,15,127,0.978764739435892,0.9583474148030368,3.8080000000000003,0.37,0.0,0.0,1
300bus.pwf,15,128,0.9946248294696313,0.988951783544812,0.0,0.0,0.0,0.0,1
300bus.pwf,15,129,0.9930111077688275,1.0015674382462132,0.0,0.0,0.0,0.0,1
300bus.pwf,15,130,1.0116927215019509,1.0546060745186991,0.0,0.0,0.0,0.0,1
300bus.pwf,15,131,0.9778951488173946,0.9995637226646851,0.0,0.0,0.0,0.0,1
300bus.pwf,15,132,0.9964797822228526,1.033389123458044,0.0,0.0,0.0,0.0,1
300bus.pwf,15,133,0.9937493435077354,0.9826084078929186,0.0,0.0,0.0,0.0,1
300bus.pwf,15,134,1.011230161539868,0.990817846752195,0.0,0.0,0.0,0.0,1
300bus.pwf,15,135,1.012244812636526,1.004093079785859,1.692,0.41600000000000004,0.0,0.0,1
300bus.pwf,15,136,1.0458761267093677,1.1301978257983933,0.552,0.182,0.0,0.0,1
300bus.pwf,15,137,1.0451435200833676,1.0566835054030816,2.736,0.998,0.0,0.0,1
300bus.pwf,15,138,1.052,0.9912830171269272,8.267000000000001,1.3519999999999999,-5.169878828456423e-26,1.881332482599346,2
300bus.pwf,15,139,1.0113353202004578,0.9979376623606868,5.95,0.833,0.0,0.0,1
300bus.pwf,15,140,1.0416392572853381,1.0021650399675797,3.877,1.147,0.0,0.0,1
300bus.pwf,15,141,1.051,1.041990896587289,1.45,0.58,2.81,0.669610235076929,2
300bus.pwf,15,142,1.0173241860272988,0.9241680259388252,0.565,0.245,0.0,0.0,1
300bus.pwf,15,143,1.044,0.9952550714253958,0.895,0.355,6.96,1.7737561066513137,2
300bus.pwf,15,144,1.0047769578666,0.7554970934399985,0.0,0.0,0.0,0.0,1
300bus.pwf,15,145,1.0072074249718415,0.964395452977941,0.24,0.14,0.0,0.0,1
300bus.pwf,15,146,1.052,1.075572317702144,0.0,0.0,0.84,0.3599346326994754,2
300bus.pwf,15,147,1.053,1.1538065490310674,0.0,0.0,2.17,-0.4928931096676372,2
300bus.pwf,15,148,1.057541337483514,0.9374184228761813,0.63,0.25,0.0,0.0,1
300bus.pwf,15,149,1.073,1.0318037330559056,0.0,0.0,1.03,0.48154736145922766,2
300bus.pwf,15,150,0.9777925571680114,1.0053615059988252,0.0,0.0,0.0,0.0,1
300bus.pwf,15,151,0.9978194499198942,1.0328690138427115,0.0,0.0,0.0,0.0,1
300bus.pwf,15,152,1.054,1.261972313014706,0.17,0.09,3.72,-0.45143282413569347,2
300bus.pwf,15,153,1.044,1.277049285131118,0.0,0.0,2.16,-0.20038064765005195,2
300bus.pwf,15,154,0.9651470051141339,1.0602296334107348,0.7,0.05,0.0,0.0,1
300bus.pwf,15,155,1.0155663716641687,1.2075797958131176,2.0,0.5,0.0,0.0,1
300bus.pwf,15,156,0.96,1.1796526439628605,0.75,0.5,-5.169878828456423e-26,0.11357240576626876,2
...
test_system.pwf,16,23,1.024999999971028,0.0,0.0,0.0,0.3482855382920313,-0.0798849782072427,3
test_system.pwf,16,24,1.0287769732870484,-0.21546821186174112,0.34600000000000003,0.069,0.0,0.0,1
test_system.pwf,16,26,1.040946591981659,-0.11851419457562944,0.0,0.0,0.0,0.0,1
test_system.pwf,16,29,1.0300899747606256,-0.02061803173474335,0.0,0.0,0.0,0.0,1
300bus.pwf,17,1,1.0728084791482886,0.9179443293750796,0.9,0.49,0.0,0.0,1
300bus.pwf,17,2,1.0772742700401252,0.9328915470982176,0.56,0.15,0.0,0.0,1
300bus.pwf,17,3,1.0264047758112662,0.9312319022502672,0.2,0.0,0.0,0.0,1
300bus.pwf,17,4,1.0522934701149862,0.8760137174889694,0.0,0.0,0.0,0.0,1
300bus.pwf,17,5,1.063350412394433,0.8974746630062811,3.53,1.3,0.0,0.0,1
300bus.pwf,17,6,1.0723018522510506,0.9248665787935605,1.2,0.41,0.0,0.0,1
300bus.pwf,17,7,1.026125721530942,0.9288770562927946,0.0,0.0,0.0,0.0,1
300bus.pwf,17,8,1.0491834987856234,0.8266895789097873,0.58,0.14,0.0,0.10000000995473773,2
300bus.pwf,17,9,1.0509397204046784,0.8608534602658082,0.96,0.43,0.0,0.0,1
300bus.pwf,17,10,1.064157496335625,0.8399162752230909,1.48,0.33,0.0,0.2000000099310944,2
300bus.pwf,17,11,1.0555284445364534,0.8477208187631992,0.83,0.21,0.0,0.0,1
300bus.pwf,17,12,1.0350975405851657,0.9056440093157007,0.0,0.0,0.0,0.0,1
300bus.pwf,17,13,1.0468755007124968,0.8014091057068072,0.58,0.1,0.0,0.0,1
300bus.pwf,17,14,1.0127571956778638,0.658365403612645,1.6,0.6,0.0,0.0,1
300bus.pwf,17,15,1.0361468619055585,0.5453317818190656,1.2670000000000001,0.23,0.0,0.0,1
300bus.pwf,17,16,1.029066505006234,0.6613463161487068,0.0,0.0,0.0,0.0,1
300bus.pwf,17,17,1.0683436439271485,0.46594037479936773,5.61,2.2,0.0,0.0,1
300bus.pwf,17,19,1.020421635317022,0.8146686122121908,0.0,0.0,0.0,0.0,1
300bus.pwf,17,20,1.048436291389543,0.7725543091577347,5.95,1.2,0.0,0.2000000098473724,2
300bus.pwf,17,21,1.0175274901985185,0.836811401853598,0.77,0.01,0.0,0.0,1
300bus.pwf,17,22,1.0452340789904306,0.7799068103249429,0.81,0.23,0.0,0.0,1
300bus.pwf,17,23,1.1000000109980903,0.8727210486380523,0.21,0.07,0.0,0.0,1
300bus.pwf,17,24,1.0570735617761635,0.9056726745253855,0.0,0.0,0.0,0.0,1
300bus.pwf,17,25,1.0742356139907094,0.833241818379266,0.45,0.12,0.0,0.0,1
300bus.pwf,17,26,1.0501046009128252,0.7832686800911575,0.28,0.09,0.0,0.0,1
300bus.pwf,17,27,1.0266907906296336,0.7335300792307945,0.69,0.13,0.0,0.0,1
300bus.pwf,17,33,1.0246373907775195,0.32251596195678817,0.55,0.06,0.0,0.0,1
300bus.pwf,17,34,1.0402998804530124,0.4649898654453721,0.0,0.0,0.0,0.0,1
300bus.pwf,17,35,1.0444314877822174,0.18231715103435078,0.0,0.0,0.0,0.0,1
300bus.pwf,17,36,1.060419443044565,0.23052164919355084,0.0,0.0,0.0,0.0,1
300bus.pwf,17,37,1.0070887696466666,0.29451420297965086,0.85,0.32,0.0,0.0,1
300bus.pwf,17,38,1.0190810643447037,0.3069205014541937,1.55,0.18,0.0,0.0,1
300bus.pwf,17,39,1.0571529087755096,0.5104636210702859,0.0,0.0,0.0,0.0,1
300bus.pwf,17,40,1.0257461387198157,0.30295140340113885,0.46,-0.21,0.0,0.0,1
300bus.pwf,17,41,1.021903926004411,0.33216822828784964,0.86,0.0,0.0,0.0,1
300bus.pwf,17,42,1.045501223236586,0.4823347342240708,0.0,0.0,0.0,0.0,1
300bus.pwf,17,43,1.0280759772163457,0.2822133230651898,0.39,0.09,0.0,0.0,1
300bus.pwf,17,44,1.0453503379802014,0.30628877185031755,1.95,0.29,0.0,0.0,1
300bus.pwf,17,45,1.052781409784044,0.36500164808363605,0.0,0.0,0.0,0.0,1
300bus.pwf,17,46,1.0537115696022985,0.4094203006441046,0.0,0.0,0.0,0.0,1
300bus.pwf,17,47,1.033249028667598,0.21979791058092957,0.58,0.11800000000000001,0.0,0.0,1
300bus.pwf,17,48,1.0418108877842978,0.30081431753146654,0.41,0.19,0.0,0.0,1
300bus.pwf,17,49,0.9020544882818585,0.06750469289417484,0.92,0.26,0.0,0.0,1
300bus.pwf,17,51,0.9677510403986581,0.2277360389030792,-0.05,0.05,0.0,0.0,1
300bus.pwf,17,52,0.9848963615710798,0.2636050613251263,0.61,0.28,0.0,0.0,1
300bus.pwf,17,53,1.02577844798784,0.2700015556171637,0.69,0.03,0.0,0.0,1
300bus.pwf,17,54,1.0349889683214233,0.2959031382460239,0.1,0.01,0.0,0.0,1
300bus.pwf,17,55,1.028969551665687,0.3326688988726752,0.22,0.1,0.0,0.0,1
300bus.pwf,17,57,1.0862421490148295,0.5027845077863576,0.98,0.2,0.0,0.0,1
300bus.pwf,17,58,1.0682925539955905,0.5724574432756993,0.14,0.01,0.0,0.0,1
300bus.pwf,17,59,1.0598583618186455,0.5961541290474672,2.18,1.06,0.0,0.0,1
300bus.pwf,17,60,1.0596613731944864,0.49194048593686723,0.0,0.0,0.0,0.0,1
300bus.pwf,17,61,1.0710478217867176,0.6297973511349861,2.27,1.1,0.0,0.0,1
300bus.pwf,17,62,1.0694538101548787,0.6943879776137927,0.0,0.0,0.0,0.0,1
300bus.pwf,17,63,1.045391068930968,0.42381179879986564,0.7,0.3,0.0,0.25000000998768634,2
300bus.pwf,17,64,1.026857489403406,0.4971385601462877,0.0,0.0,0.0,0.0,1
300bus.pwf,17,69,1.040677891898708,0.18468148390003863,0.0,0.0,0.0,0.0,1
300bus.pwf,17,70,1.0311932843326606,0.037463655166554775,0.56,0.2,0.0,0.0,1
300bus.pwf,17,71,1.052103904516261,0.11792974601645782,1.16,0.38,0.0,0.0,1
300bus.pwf,17,72,1.0417474807129687,0.15494718977467656,0.57,0.19,0.0,0.0,1
300bus.pwf,17,73,1.041079103989479,0.1829570933694738,2.24,0.71,0.0,0.0,1
300bus.pwf,17,74,1.0510826730000762,0.24171389905754312,0.0,0.0,0.0,0.0,1
300bus.pwf,17,76,1.03290722102295,0.1698167790611138,2.08,1.07,0.0,0.35000000996492864,2
300bus.pwf,17,77,1.055398979403048,0.19319169928289648,0.74,0.28,0.0,0.0,1
300bus.pwf,17,78,1.061886112212111,0.20664391791420267,0.0,0.0,0.0,0.0,1
300bus.pwf,17,79,1.0527620816069319,0.19325061516990016,0.48,0.14,0.0,0.0,1
300bus.pwf,17,80,1.0608748217095314,0.19214946666654584,0.28,0.07,0.0,0.0,1
300bus.pwf,17,81,1.0800717286894395,0.2889495262799045,0.0,0.0,0.0,0.0,1
300bus.pwf,17,84,1.1000000109984034,0.31100466654683123,0.37,0.13,3.75,1.4711212757727299,2
300bus.pwf,17,85,1.0732469524916937,0.3433853082801768,0.0,0.0,0.0,0.0,1
300bus.pwf,17,86,1.0647631398252912,0.4187510279480677,0.0,0.0,0.0,0.0,1
300bus.pwf,17,87,1.0382074913617658,0.5830078784545539,0.0,0.0,0.0,0.0,1
300bus.pwf,17,88,1.0677924289906902,0.2569494231207292,0.0,0.0,0.0,0.0,1
300bus.pwf,17,89,1.0514752441240653,0.4264245336073619,0.442,0.0,0.0,0.0,1
300bus.pwf,17,90,1.040654436984288,0.36494770484284456,0.66,0.0,0.0,0.0,1
300bus.pwf,17,91,1.1000000109986678,0.47779146346587414,0.174,0.0,1.55,0.4294882035589523,2
300bus.pwf,17,92,1.1000000109989394,0.47968755919484807,0.158,0.0,2.9,0.34521262305696937,2
300bus.pwf,17,94,1.0456063575089036,0.5410547602965555,0.603,0.0,0.0,0.0,1
300bus.pwf,17,97,1.087215244928744,0.41541808671428115,0.39899999999999997,0.0,0.0,0.0,1
300bus.pwf,17,98,1.1000000109957686,0.3920378726351204,0.667,0.0,0.68,0.3128635430092627,2
300bus.pwf,17,99,1.0869176433045966,0.2898682663986853,0.835,0.0,0.0,0.0,1
300bus.pwf,17,100,1.0893659761642422,0.39825624019166156,0.0,0.0,0.0,0.0,1
300bus.pwf,17,102,1.084298859119711,0.3901017770503654,0.778,0.0,0.0,0.0,1
300bus.pwf,17,103,1.0864249916809374,0.40277507486364267,0.32,0.0,0.0,0.0,1
300bus.pwf,17,104,1.084965392023566,0.34920159829561676,0.086,0.0,0.0,0.0,1
300bus.pwf,17,105,1.080044157256572,0.38009756283842216,0.496,0.0,0.0,0.0,1
300bus.pwf,17,107,1.0689996642836774,0.32291347513326984,0.046,0.0,0.0,0.0,1
300bus.pwf,17,108,1.0893772489528935,0.2894934403151892,1.121,0.0,1.17,0.7700000099665169,2
300bus.pwf,17,109,1.0622693477150285,0.19101600323600101,0.307,0.0,0.0,0.0,1
300bus.pwf,17,110,1.0628617999679781,0.21380200276920386,0.63,0.0,0.0,0.0,1
300bus.pwf,17,112,1.0588986311141009,0.1512884535168221,0.196,0.0,0.0,0.0,1
300bus.pwf,17,113,1.0379719379235521,0.18961975536580672,0.262,0.0,0.0,0.0,1
300bus.pwf,17,114,1.060328635758349,0.15246479990993206,0.182,0.0,0.0,0.0,1
300bus.pwf,17,115,0.9714919883968575,1.1956866736820655,0.0,0.0,0.0,0.0,1
300bus.pwf,17,116,0.9615592189744969,1.323671343535774,0.0,0.0,0.0,0.0,1
300bus.pwf,17,117,0.9636877527884441,1.408265796904587,0.0,0.0,0.0,0.0,1
300bus.pwf,17,118,0.9584992948187829,1.4262828846463673,0.141,6.5,0.0,0.0,1
300bus.pwf,17,119,1.0868295488479147,1.66363183665144,0.0,0.0,19.3,12.647535690057023,2
300bus.pwf,17,120,1.0501810856539195,1.6186291294263164,0.0,0.0,0.0,0.0,1
300bus.pwf,17,121,0.8999999900014133,1.2507867554453092,5.35,0.55,0.0,0.0,1
300bus.pwf,17,122,0.9456789425000705,1.1580007298839283,2.291,0.11800000000000001,0.0,0.0,1
300bus.pwf,17,123,0.9330637452366554,1.0735369771085417,0.78,0.013999999999999999,0.0,0.0,1
300bus.pwf,17,124,0.9318652992364755,1.2706105342014402,2.764,0.593,2.4,-0.6000000099234524,2
300bus.pwf,17,125,0.9889783698351824,0.9069179051948627,5.148,0.8270000000000001,0.0,2.0000000198280334,2
300bus.pwf,17,126,0.9906443091623908,0.9830542971877557,0.579,0.051,0.0,0.0,1
300bus.pwf,17,127,1.025628836248606,0.9088632168250932,3.8080000000000003,0.37,0.0,0.0,1
300bus.pwf,17,128,1.0407863434344704,0.9363727701808096,0.0,0.0,0.0,0.0,1
300bus.pwf,17,129,1.0389116876180782,0.9479753000578707,0.0,0.0,0.0,0.0,1
300bus.pwf,17,130,1.0603860646456111,0.9979376120130439,0.0,0.0,0.0,0.0,1
300bus.pwf,17,131,1.022615158703366,0.9485737966274408,0.0,0.0,0.0,0.0,1
300bus.pwf,17,132,1.0457285868099286,0.9785895944309828,0.0,0.0,0.0,0.0,1
300bus.pwf,17,133,1.0388257203316325,0.9300640848921643,0.0,0.0,0.0,0.0,1
300bus.pwf,17,134,1.0577759395898287,0.9382044569312492,0.0,0.0,0.0,0.0,1
300bus.pwf,17,135,1.0569584821480231,0.95047669521526,1.692,0.41600000000000004,0.0,0.0,1
300bus.pwf,17,136,1.0832330588174666,1.0674946245065344,0.552,0.182,0.0,0.0,1
300bus.pwf,17,137,1.0817038607126015,0.9977517912405496,2.736,0.998,0.0,0.0,1
300bus.pwf,17,138,1.1000000109825296,0.9371498301642421,8.267000000000001,1.3519999999999999,0.0,3.033929960045284,2
300bus.pwf,17,139,1.050358391097219,0.9408830166103271,5.95,0.833,0.0,0.0,1
300bus.pwf,17,140,1.076596073326894,0.9457245672496511,3.877,1.147,0.0,0.0,1
300bus.pwf,17,141,1.0744520188719848,0.9837733594969327,1.45,0.58,2.81,0.7500000092437314,2
300bus.pwf,17,142,1.0397864968262107,0.8674104058369395,0.565,0.245,0.0,0.0,1
300bus.pwf,17,143,1.0860878901584408,0.9298142730824092,0.895,0.355,6.96,3.0000000299410496,2
300bus.pwf,17,144,1.0685344749679455,0.7126189794717814,0.0,0.0,0.0,0.0,1
300bus.pwf,17,145,1.0124247735829728,0.9067298428062414,0.24,0.14,0.0,0.0,1
300bus.pwf,17,146,1.0533096164943165,1.0184761433574097,0.0,0.0,0.84,-0.01547377981805215,2
300bus.pwf,17,147,1.0584277980796641,1.0956326050311396,0.0,0.0,2.17,-0.5000000090948811,2
300bus.pwf,17,148,1.0863884779942325,0.8735535290090584,0.63,0.25,0.0,0.0,1
300bus.pwf,17,149,1.1000000109960983,0.9669767196566923,0.0,0.0,1.03,0.46544520803735717,2
300bus.pwf,17,150,1.0219074882939947,0.9538871075443528,0.0,0.0,0.0,0.0,1
300bus.pwf,17,151,1.0472610095711494,0.9781640608420963,0.0,0.0,0.0,0.0,1
300bus.pwf,17,152,1.0840926541563285,1.1922948155122557,0.17,0.09,3.72,0.02487675138803694,2
300bus.pwf,17,153,1.0111730957530343,1.2168015286667475,0.0,0.0,2.16,-0.50000000965102,2
300bus.pwf,17,154,0.9111291472070873,0.981400116334173,0.7,0.05,0.0,0.0,1
300bus.pwf,17,155,0.9592797002226887,1.1475925700712475,2.0,0.5,0.0,0.0,1
300bus.pwf,17,156,0.8999999900099599,1.1164309992652919,0.75,0.5,0.0,-0.10000000955399442,2
300bus.pwf,17,157,0.9620558915933557,1.1851021751008675,1.235,-0.243,0.0,0.0,1
300bus.pwf,17,158,0.9553488067348088,1.1779045614368324,0.0,0.0,0.0,0.0,1
300bus.pwf,17,159,0.9499991403256168,1.2543197862347346,0.33,0.165,0.0,0.0,1
300bus.pwf,17,160,0.9338883631959762,1.2285816758403483,0.0,0.0,0.0,0.0,1
300bus.pwf,17,161,0.9945036466536399,1.1870337288290875,0.35,0.15,0.0,0.0,1
300bus.pwf,17,162,0.9101147481845854,1.383203036419065,0.85,0.24,0.0,0.0,1
300bus.pwf,17,163,1.0380849861743824,1.0730232372823185,0.0,0.004,0.0,0.0,1
300bus.pwf,17,164,0.9294330570901076,1.203435897557292,0.0,0.0,0.0,0.0,1
300bus.pwf,17,165,0.9061715634371267,1.5482116853621954,0.0,0.0,0.0,0.0,1
300bus.pwf,17,166,0.8999999900071401,1.6317871451513883,0.0,0.0,0.0,0.0,1
300bus.pwf,17,167,1.0111863124545666,0.8897865580204821,2.9989999999999997,0.9570000000000001,0.0,0.0,1
300bus.pwf,17,168,1.0407523162759362,0.936232214772294,0.0,0.0,0.0,0.0,1
300bus.pwf,17,169,1.0225692682640246,0.9147765137483065,0.0,0.0,0.0,0.0,1
300bus.pwf,17,170,0.9702304665272223,0.9221262791187289,4.8180000000000005,2.05,2.05,0.9000000098926751,2
300bus.pwf,17,171,1.0206416691730222,0.8575268514391502,7.636,2.911,0.0,1.5000000143495928,2
300bus.pwf,17,172,1.04096827747298,0.8791109232590775,0.265,0.0,0.0,0.0,1
300bus.pwf,17,173,0.96014839990515,0.7303986972123795,1.635,0.43,0.0,0.0,1
300bus.pwf,17,174,1.0789101355559116,0.9336482713529735,0.0,0.0,0.0,0.0,1
300bus.pwf,17,175,0.9711974804502805,0.7946824124772731,1.76,0.83,0.0,0.0,1
300bus.pwf,17,176,0.9173663959864403,1.076690215481679,0.05,0.04,2.28,-0.4500000099633345,2
300bus.pwf,17,177,0.8999999900061311,0.9680064854137329,0.28,0.12,0.84,-0.15000000994391705,2
300bus.pwf,17,178,0.9144050521633146,0.7926031873198972,4.274,1.736,0.0,0.0,1
300bus.pwf,17,179,0.9644299076646277,0.738882838218904,0.74,0.29,0.0,0.0,1
300bus.pwf,17,180,0.9722971632665541,0.8540752049624278,0.695,0.493,0.0,0.0,1
300bus.pwf,17,181,1.0881058719535615,1.0023976296918014,0.7340000000000001,0.0,0.0,0.0,1
300bus.pwf,17,182,1.0810462545995436,0.9321967717854762,2.407,0.89,0.0,0.0,1
300bus.pwf,17,183,0.9368563280550347,1.1533470815032976,0.4,0.04,0.0,0.0,1
300bus.pwf,17,184,1.0820733827796347,0.9567879831662176,1.368,0.166,0.0,0.0,1
300bus.pwf,17,185,1.1000000109856465,0.9966224675849286,0.0,0.0,2.0,0.5401076243643282,2
300bus.pwf,17,186,1.1000000109926216,1.0585242638785932,0.598,0.243,12.0,2.326143661692553,2
300bus.pwf,17,187,1.1000000109944306,1.0468075163882737,0.598,0.243,12.0,2.551750889234519,2
300bus.pwf,17,188,1.089380580258343,1.012012370191406,1.8259999999999998,0.436,0.0,0.0,1
300bus.pwf,17,189,1.084679643920508,0.1801315295130398,0.07,0.02,0.0,0.0,1
300bus.pwf,17,190,1.1000000109987844,0.25981010086795564,0.0,0.0,4.75,1.0103566354054212,2
300bus.pwf,17,191,0.9947076497950612,0.882521177755182,4.89,0.53,19.73,6.542661701151516,2
300bus.pwf,17,192,0.8999999900028766,0.4340639318198864,8.0,0.72,0.0,0.0,1
300bus.pwf,17,193,1.074917503258673,0.18052216846340927,0.0,0.0,0.0,0.0,1
300bus.pwf,17,194,1.0956397076921907,0.2828117686718915,0.0,0.0,0.0,0.0,1
300bus.pwf,17,195,1.0884192965356103,0.25698262823941614,0.0,0.0,0.0,0.0,1
300bus.pwf,17,196,1.0523257853328098,0.18372976329488921,0.1,0.03,0.0,0.0,1
300bus.pwf,17,197,1.071252457237891,0.208456240419947,0.43,0.14,0.0,0.0,1
300bus.pwf,17,198,1.1000000109960875,0.2546215643024187,0.64,0.21,4.24,1.3979738762774723,2
300bus.pwf,17,199,1.0402654190258807,0.17406224777872126,0.35,0.12,0.0,0.0,1
300bus.pwf,17,200,1.0421888185833799,0.17573042528380123,0.27,0.12,0.0,0.0,1
300bus.pwf,17,201,1.052349524945946,0.16094179138712605,0.41,0.14,0.0,0.0,1
300bus.pwf,17,202,1.0696581384298334,0.18645847352249056,0.38,0.13,0.0,0.0,1
300bus.pwf,17,203,1.0843707483241545,0.22956222785265953,0.42,0.14,0.0,0.0,1
300bus.pwf,17,204,1.0608950219282631,0.19228585237385062,0.72,0.24,0.0,0.0,1
300bus.pwf,17,205,1.07065133830272,0.1839929041075768,0.0,-0.05,0.0,0.0,1
300bus.pwf,17,206,1.085226755590004,0.16619702600934286,0.12,0.02,0.0,0.0,1
300bus.pwf,17,207,1.1000000109964918,0.16706811259961832,-0.21,-0.142,0.0,0.0,1
300bus.pwf,17,208,1.0789836936863935,0.17630226249971456,0.07,0.02,0.0,0.0,1
300bus.pwf,17,209,1.0877183214589878,0.18166245640056874,0.38,0.13,0.0,0.0,1
300bus.pwf,17,210,1.0641772311028665,0.2008479184862431,0.0,0.0,0.0,0.0,1
300bus.pwf,17,211,1.0762045230728323,0.21662859775214155,0.96,0.07,0.0,0.0,1
300bus.pwf,17,212,1.0825753347769733,0.22977684154675124,0.0,0.0,0.0,0.0,1
300bus.pwf,17,213,1.1000000109548622,0.3900375670932921,0.0,0.0,2.72,0.8750311175584746,2
300bus.pwf,17,214,1.0675592474267908,0.3037762263632983,0.22,0.16,0.0,0.0,1
300bus.pwf,17,215,1.057117186304787,0.2632368232054785,0.47,0.26,0.0,0.0,1
300bus.pwf,17,216,1.0380607536941033,0.22885851925167813,1.76,1.05,0.0,0.0,1
300bus.pwf,17,217,1.0648674709978319,0.23401359616606135,1.0,0.75,0.0,0.0,1
300bus.pwf,17,218,1.046802859657175,0.22678354278597632,1.31,0.96,0.0,0.0,1
300bus.pwf,17,219,1.1000000109937977,0.2512171864034197,0.0,0.0,0.0,0.0,1
300bus.pwf,17,220,1.0344365536428473,0.24105862414274043,2.85,1.0,1.0,0.600000009636146,2
300bus.pwf,17,221,1.0542675583563919,0.22777620402137222,1.71,0.7,4.5,3.200000031704801,2
...
test_system.pwf,17,23,0.9974649156643752,0.0,0.0,0.0,0.3484262491057591,-0.061759632615742216,3
test_system.pwf,17,24,0.9945822983179332,-0.2291165268987317,0.34600000000000003,0.069,0.0,0.0,1
test_system.pwf,17,26,1.008605529639582,-0.12562707084282815,0.0,0.0,0.0,0.0,1
test_system.pwf,17,29,1.0015726748200706,-0.021799432322476855,0.0,0.0,0.0,0.0,1
300bus.pwf,18,1,1.0659450380418578,0.8595305085040613,0.9,0.49,0.0,0.0,1
300bus.pwf,18,2,1.0602062062424114,0.8788506521153834,0.56,0.15,0.0,0.0,1
300bus.pwf,18,3,1.01052896183335,0.8737216643124466,0.2,0.0,0.0,0.0,1
300bus.pwf,18,4,1.1000000108436987,0.8224418837230796,0.0,0.0,0.0,0.0,1
300bus.pwf,18,5,1.0548571458129559,0.8389286370423058,3.53,1.3,0.0,0.0,1
300bus.pwf,18,6,1.0481619804114333,0.8705365316110576,1.2,0.41,0.0,0.0,1
300bus.pwf,18,7,1.0126564712768564,0.8717252223250102,0.0,0.0,0.0,0.0,1
300bus.pwf,18,8,1.0443376402479945,0.7718474863819601,0.58,0.14,0.0,0.10000000319390202,2
300bus.pwf,18,9,1.0369272614149763,0.8015559480654828,0.96,0.43,0.0,0.0,1
300bus.pwf,18,10,1.0999999624946792,0.7862492319725942,1.48,0.33,0.0,0.20000000130549633,2
300bus.pwf,18,11,1.0367417920514632,0.7880842636621854,0.83,0.21,0.0,0.0,1
300bus.pwf,18,12,1.0286386672830414,0.8484423588786429,0.0,0.0,0.0,0.0,1
300bus.pwf,18,13,0.9847449684568333,0.7394692865751578,0.58,0.1,0.0,0.0,1
300bus.pwf,18,14,1.0373092901412748,0.6104101149371598,1.6,0.6,0.0,0.0,1
300bus.pwf,18,15,1.0879568295418218,0.5080619067926312,1.2670000000000001,0.23,0.0,0.0,1
300bus.pwf,18,16,1.05282769325527,0.6202173068565799,0.0,0.0,0.0,0.0,1
300bus.pwf,18,17,1.0999999941467988,0.4334554054607439,5.61,2.2,0.0,0.0,1
300bus.pwf,18,19,1.0353884448462156,0.7594525098919667,0.0,0.0,0.0,0.0,1
300bus.pwf,18,20,0.9444407696645943,0.7044852729842845,5.95,1.2,0.0,0.19999999690787634,2
300bus.pwf,18,21,1.0359325282212701,0.7801294318644678,0.77,0.01,0.0,0.0,1
300bus.pwf,18,22,0.9582456454683985,0.7081577871013013,0.81,0.23,0.0,0.0,1
300bus.pwf,18,23,1.0756048812568204,0.796759040503617,0.21,0.07,0.0,0.0,1
300bus.pwf,18,24,1.0782537064502802,0.8410744043349063,0.0,0.0,0.0,0.0,1
300bus.pwf,18,25,1.041449282350186,0.7565844064416839,0.45,0.12,0.0,0.0,1
300bus.pwf,18,26,1.0022121171850475,0.705891346735575,0.28,0.09,0.0,0.0,1
300bus.pwf,18,27,0.9542430111099698,0.6531655118272871,0.69,0.13,0.0,0.0,1
300bus.pwf,18,33,1.0302571700046317,0.30049794090065174,0.55,0.06,0.0,0.0,1
300bus.pwf,18,34,1.0575449276248245,0.43527784845228246,0.0,0.0,0.0,0.0,1
300bus.pwf,18,35,1.0049757083527582,0.1457186480786575,0.0,0.0,0.0,0.0,1
300bus.pwf,18,36,1.0905203575863431,0.19854859904571034,0.0,0.0,0.0,0.0,1
300bus.pwf,18,37,1.0065366623932275,0.27685258860688067,0.85,0.32,0.0,0.0,1
300bus.pwf,18,38,1.0243989097544208,0.2859034865897828,1.55,0.18,0.0,0.0,1
300bus.pwf,18,39,1.075714235248571,0.47843245020861735,0.0,0.0,0.0,0.0,1
300bus.pwf,18,40,1.0282281726332465,0.2819693028502681,0.46,-0.21,0.0,0.0,1
300bus.pwf,18,41,1.0282588778370656,0.3101180926237592,0.86,0.0,0.0,0.0,1
300bus.pwf,18,42,1.0643511299993533,0.451269809547911,0.0,0.0,0.0,0.0,1
300bus.pwf,18,43,1.0455101465802512,0.26020030197283467,0.39,0.09,0.0,0.0,1
300bus.pwf,18,44,1.0814726733210962,0.27977836112892884,1.95,0.29,0.0,0.0,1
300bus.pwf,18,45,0.9889457755519537,0.3374711258490542,0.0,0.0,0.0,0.0,1
300bus.pwf,18,46,1.0773032596567151,0.3785230569575848,0.0,0.0,0.0,0.0,1
300bus.pwf,18,47,1.031209810329643,0.19430949481660506,0.58,0.11800000000000001,0.0,0.0,1
300bus.pwf,18,48,1.0459328772737826,0.27604506518930394,0.41,0.19,0.0,0.0,1
300bus.pwf,18,49,0.9018179025690573,0.06350604087311536,0.92,0.26,0.0,0.0,1
300bus.pwf,18,51,0.9659414032571377,0.21574041161593255,-0.05,0.05,0.0,0.0,1
300bus.pwf,18,52,0.981978942873391,0.25049226665570984,0.61,0.28,0.0,0.0,1
300bus.pwf,18,53,1.0422386515874906,0.24926375346097632,0.69,0.03,0.0,0.0,1
300bus.pwf,18,54,1.0530830328647165,0.27477825348426727,0.1,0.01,0.0,0.0,1
300bus.pwf,18,55,1.0325760667854011,0.3161716014928166,0.22,0.1,0.0,0.0,1
300bus.pwf,18,57,1.090687490095719,0.4835170365113487,0.98,0.2,0.0,0.0,1
300bus.pwf,18,58,1.0684228200071735,0.5522652056166231,0.14,0.01,0.0,0.0,1
300bus.pwf,18,59,1.0596006268674831,0.5752590144536374,2.18,1.06,0.0,0.0,1
300bus.pwf,18,60,1.028673718478894,0.47247297528873244,0.0,0.0,0.0,0.0,1
300bus.pwf,18,61,1.0710478211667855,0.6084901116930639,2.27,1.1,0.0,0.0,1
300bus.pwf,18,62,1.0937815371194506,0.671261270527323,0.0,0.0,0.0,0.0,1
300bus.pwf,18,63,1.1000000076669652,0.4077138232377485,0.7,0.3,0.0,0.25000000127363287,2
300bus.pwf,18,64,1.0363505233384163,0.48068494970362746,0.0,0.0,0.0,0.0,1
300bus.pwf,18,69,1.0348384640838981,0.1432617083934951,0.0,0.0,0.0,0.0,1
300bus.pwf,18,70,0.9659844801770133,-0.009359068352827755,0.56,0.2,0.0,0.0,1
300bus.pwf,18,71,0.9932815730460581,0.0801729336929018,1.16,0.38,0.0,0.0,1
300bus.pwf,18,72,0.9988230415996227,0.11642858296331327,0.57,0.19,0.0,0.0,1
300bus.pwf,18,73,0.9790114876867556,0.15487848098513357,2.24,0.71,0.0,0.0,1
300bus.pwf,18,74,1.0710851958419998,0.20763591539330567,0.0,0.0,0.0,0.0,1
300bus.pwf,18,76,0.9903830148548074,0.13314788527760432,2.08,1.07,0.0,0.3500000026042668,2
300bus.pwf,18,77,1.021628369634657,0.1554011881069838,0.74,0.28,0.0,0.0,1
300bus.pwf,18,78,1.0313769637154686,0.16932573784127763,0.0,0.0,0.0,0.0,1
300bus.pwf,18,79,1.015799215489191,0.15714172642028398,0.48,0.14,0.0,0.0,1
300bus.pwf,18,80,1.0271975333580197,0.15241954230933832,0.28,0.07,0.0,0.0,1
300bus.pwf,18,81,1.0735824331613968,0.2561264348559664,0.0,0.0,0.0,0.0,1
300bus.pwf,18,84,1.0997354333967746,0.27681129763370815,0.37,0.13,3.75,2.400000015631652,2
300bus.pwf,18,85,1.071606340940727,0.31229526288395504,0.0,0.0,0.0,0.0,1
300bus.pwf,18,86,1.1000000068304698,0.38785591233094907,0.0,0.0,0.0,0.0,1
300bus.pwf,18,87,1.0709952262169828,0.5435494846245074,0.0,0.0,0.0,0.0,1
300bus.pwf,18,88,1.1000000102439418,0.22365654188107742,0.0,0.0,0.0,0.0,1
300bus.pwf,18,89,1.06330858756676,0.3965620829368555,0.442,0.0,0.0,0.0,1
300bus.pwf,18,90,1.0469804665333742,0.3421422451499567,0.66,0.0,0.0,0.0,1
300bus.pwf,18,91,1.1000000105935477,0.4418899896697363,0.174,0.0,1.55,0.7441349496247304,2
300bus.pwf,18,92,1.1000000106379213,0.4513455849884896,0.158,0.0,2.9,0.3566140240808019,2
300bus.pwf,18,94,1.004184187052647,0.5031958164903464,0.603,0.0,0.0,0.0,1
300bus.pwf,18,97,1.069693443839048,0.3826754369488735,0.39899999999999997,0.0,0.0,0.0,1
300bus.pwf,18,98,1.0827135703486532,0.358567948810259,0.667,0.0,0.68,0.5599999509265371,2
300bus.pwf,18,99,1.0991511943366148,0.25642025772950844,0.835,0.0,0.0,0.0,1
300bus.pwf,18,100,1.0653188593932073,0.36697475584507083,0.0,0.0,0.0,0.0,1
300bus.pwf,18,102,1.0516186776505263,0.36127363230562487,0.778,0.0,0.0,0.0,1
300bus.pwf,18,103,1.0813626983532787,0.3721859573062597,0.32,0.0,0.0,0.0,1
300bus.pwf,18,104,1.0660748205256017,0.317598352582943,0.086,0.0,0.0,0.0,1
300bus.pwf,18,105,1.078999638786231,0.3504018872842038,0.496,0.0,0.0,0.0,1
300bus.pwf,18,107,1.07232866220913,0.29502907971863523,0.046,0.0,0.0,0.0,1
300bus.pwf,18,108,1.100000010518991,0.2563533073607923,1.121,0.0,1.17,0.6018760374188787,2
300bus.pwf,18,109,1.061531193247276,0.15697097942494348,0.307,0.0,0.0,0.0,1
300bus.pwf,18,110,1.0646235697037212,0.17959635009174388,0.63,0.0,0.0,0.0,1
300bus.pwf,18,112,1.0496576587735875,0.10766432062815519,0.196,0.0,0.0,0.0,1
300bus.pwf,18,113,1.0342273508500526,0.16209722883858593,0.262,0.0,0.0,0.0,1
300bus.pwf,18,114,1.0499286001709973,0.10796508372203999,0.182,0.0,0.0,0.0,1
300bus.pwf,18,115,0.920162305829608,1.1437023033124736,0.0,0.0,0.0,0.0,1
300bus.pwf,18,116,0.8999999900547273,1.2369252720221502,0.0,0.0,0.0,0.0,1
300bus.pwf,18,117,0.9882054289586394,1.352967390928033,0.0,0.0,0.0,0.0,1
300bus.pwf,18,118,0.979870049110462,1.3706944728399542,0.141,6.5,0.0,0.0,1
300bus.pwf,18,119,1.060686533148632,1.612006882596861,0.0,0.0,19.3,10.47122535408822,2
300bus.pwf,18,120,1.0114021055983815,1.5626795970000962,0.0,0.0,0.0,0.0,1
300bus.pwf,18,121,0.8999999900867695,1.1998579458067258,5.35,0.55,0.0,0.0,1
300bus.pwf,18,122,0.8999999904786704,1.1047947827098472,2.291,0.11800000000000001,0.0,0.0,1
300bus.pwf,18,123,0.9482790614085035,1.0110979434310436,0.78,0.013999999999999999,0.0,0.0,1
300bus.pwf,18,124,0.9788275314438978,1.1897660777833146,2.764,0.593,2.4,1.2000000103917674,2
300bus.pwf,18,125,0.9938160643267009,0.8525987602526381,5.148,0.8270000000000001,0.0,2.0000000189451486,2
300bus.pwf,18,126,0.9963983291304395,0.9291020303075873,0.579,0.051,0.0,0.0,1
300bus.pwf,18,127,1.0324762292336775,0.8551034589867805,3.8080000000000003,0.37,0.0,0.0,1
300bus.pwf,18,128,1.0486856595266916,0.8828549117517279,0.0,0.0,0.0,0.0,1
300bus.pwf,18,129,1.0468080020106314,0.8944603569858914,0.0,0.0,0.0,0.0,1
300bus.pwf,18,130,1.0725616402359421,0.9436543712311226,0.0,0.0,0.0,0.0,1
300bus.pwf,18,131,1.003643723925529,0.8925032061043466,0.0,0.0,0.0,0.0,1
300bus.pwf,18,132,1.0844153956190588,0.9246365436271599,0.0,0.0,0.0,0.0,1
300bus.pwf,18,133,1.0460144249042973,0.8767694756783788,0.0,0.0,0.0,0.0,1
300bus.pwf,18,134,1.0640140675786802,0.8828584232989152,0.0,0.0,0.0,0.0,1
300bus.pwf,18,135,1.0654944157530268,0.8935379799595846,1.692,0.41600000000000004,0.0,0.0,1
300bus.pwf,18,136,1.0956167118997207,1.0053791139321342,0.552,0.182,0.0,0.0,1
300bus.pwf,18,137,1.0867723605258177,0.9438184873549514,2.736,0.998,0.0,0.0,1
300bus.pwf,18,138,1.1000000106099672,0.8836549172896354,8.267000000000001,1.3519999999999999,0.0,2.7168419343171935,2
300bus.pwf,18,139,1.056020059875877,0.8869009938854959,5.95,0.833,0.0,0.0,1
300bus.pwf,18,140,1.082364795536468,0.8918130382241634,3.877,1.147,0.0,0.0,1
300bus.pwf,18,141,1.0745161061233723,0.9268879111579466,1.45,0.58,2.81,0.7499999822485575,2
300bus.pwf,18,142,1.0340311528456594,0.8158076131604718,0.565,0.245,0.0,0.0,1
300bus.pwf,18,143,1.0483159686988324,0.879180196365078,0.895,0.355,6.96,3.0000000141390726,2
300bus.pwf,18,144,1.1000000103803618,0.6877998697121301,0.0,0.0,0.0,0.0,1
300bus.pwf,18,145,1.021817984776995,0.8546454795585189,0.24,0.14,0.0,0.0,1
300bus.pwf,18,146,1.0841831658582106,0.9588408652535949,0.0,0.0,0.84,0.3499999680092528,2
300bus.pwf,18,147,1.100000009462447,1.0297003648392589,0.0,0.0,2.17,-0.18979502518163066,2
300bus.pwf,18,148,1.1000000086622788,0.8210412038965695,0.63,0.25,0.0,0.0,1
300bus.pwf,18,149,1.082035164178575,0.9170690804406926,0.0,0.0,1.03,0.49999999321201644,2
300bus.pwf,18,150,1.0002997063414916,0.8977295008271381,0.0,0.0,0.0,0.0,1
300bus.pwf,18,151,1.0235676226795527,0.9246800795034347,0.0,0.0,0.0,0.0,1
300bus.pwf,18,152,1.1000000105412526,1.122234826659812,0.17,0.09,3.72,-0.05905102025697074,2
300bus.pwf,18,153,1.0401849585745198,1.1327901616694696,0.0,0.0,2.16,0.8999999646640118,2
300bus.pwf,18,154,1.011374767892419,0.9266238503212817,0.7,0.05,0.0,0.0,1
300bus.pwf,18,155,0.899999992910117,1.080723534031092,2.0,0.5,0.0,0.0,1
300bus.pwf,18,156,0.8999999949131587,1.0521753568302847,0.75,0.5,0.0,0.1499999403604867,2
300bus.pwf,18,157,0.9447950387910283,1.1343151290389761,1.235,-0.243,0.0,0.0,1
300bus.pwf,18,158,0.9748047860478755,1.1216299493750275,0.0,0.0,0.0,0.0,1
300bus.pwf,18,159,0.9282358823198996,1.2072677614056322,0.33,0.165,0.0,0.0,1
300bus.pwf,18,160,1.0290587759221848,1.1532450180843674,0.0,0.0,0.0,0.0,1
300bus.pwf,18,161,0.9940680609863115,1.109557491967696,0.35,0.15,0.0,0.0,1
300bus.pwf,18,162,0.9453611406071933,1.312566941952526,0.85,0.24,0.0,0.0,1
300bus.pwf,18,163,1.0015201766581567,1.0170289270424446,0.0,0.004,0.0,0.0,1
300bus.pwf,18,164,0.9663712045327837,1.1458198743201284,0.0,0.0,0.0,0.0,1
300bus.pwf,18,165,0.9365784864260971,1.4666340252596686,0.0,0.0,0.0,0.0,1
300bus.pwf,18,166,0.9269280099560321,1.5452031245575948,0.0,0.0,0.0,0.0,1
300bus.pwf,18,167,1.0200400144351125,0.8372744800534032,2.9989999999999997,0.9570000000000001,0.0,0.0,1
300bus.pwf,18,168,1.0486421430108486,0.8827148545481233,0.0,0.0,0.0,0.0,1
300bus.pwf,18,169,1.0304551068562775,0.861768026587289,0.0,0.0,0.0,0.0,1
300bus.pwf,18,170,1.0379039639764223,0.8753687206883263,4.8180000000000005,2.05,2.05,0.9000000048247025,2
300bus.pwf,18,171,1.027992429826043,0.8052477299739874,7.636,2.911,0.0,1.5000000099746598,2
300bus.pwf,18,172,1.0481727382930788,0.8244337322893123,0.265,0.0,0.0,0.0,1
300bus.pwf,18,173,0.941031482459556,0.6692757410276501,1.635,0.43,0.0,0.0,1
300bus.pwf,18,174,1.100000004700571,0.8767143652520096,0.0,0.0,0.0,0.0,1
300bus.pwf,18,175,0.8999999922488687,0.734346603672751,1.76,0.83,0.0,0.0,1
300bus.pwf,18,176,0.9123525710955311,1.0190480509648832,0.05,0.04,2.28,-0.44999996216201626,2
300bus.pwf,18,177,0.9113573731099334,0.9050163043078623,0.28,0.12,0.84,0.289647547108853,2
300bus.pwf,18,178,0.8999999915450263,0.7357498160650151,4.274,1.736,0.0,0.0,1
300bus.pwf,18,179,0.936601045111761,0.6803901792588586,0.74,0.29,0.0,0.0,1
300bus.pwf,18,180,0.9473998151713071,0.8000966570479671,0.695,0.493,0.0,0.0,1
300bus.pwf,18,181,1.0913185501630196,0.9486850056265012,0.7340000000000001,0.0,0.0,0.0,1
300bus.pwf,18,182,1.0869140228307264,0.8783737349765465,2.407,0.89,0.0,0.0,1
300bus.pwf,18,183,1.100000005835896,1.0805973995798008,0.4,0.04,0.0,0.0,1
300bus.pwf,18,184,1.0845215188508894,0.9016589464186514,1.368,0.166,0.0,0.0,1
300bus.pwf,18,185,1.1000000107563612,0.9416332350709959,0.0,0.0,2.0,0.4305500701986313,2
300bus.pwf,18,186,1.100000010824434,1.0047338452212031,0.598,0.243,12.0,1.6279893552856637,2
300bus.pwf,18,187,1.1000000108393961,0.9931346137828546,0.598,0.243,12.0,1.7963835690418566,2
300bus.pwf,18,188,1.091968352345994,0.9582591885996811,1.8259999999999998,0.436,0.0,0.0,1
300bus.pwf,18,189,1.0474805703567232,0.12342351574301233,0.07,0.02,0.0,0.0,1
300bus.pwf,18,190,1.0567014220351236,0.22941949119141217,0.0,0.0,4.75,-2.9999999406420557,2
300bus.pwf,18,191,0.9939650696142183,0.848051865039746,4.89,0.53,19.73,6.5132179410364754,2
300bus.pwf,18,192,0.8999999909407755,0.3992434946877289,8.0,0.72,0.0,0.0,1
300bus.pwf,18,193,1.0563711560885556,0.119630516740361,0.0,0.0,0.0,0.0,1
300bus.pwf,18,194,1.0767474676142021,0.25047515393222924,0.0,0.0,0.0,0.0,1
300bus.pwf,18,195,1.0919390271738214,0.22274188172844678,0.0,0.0,0.0,0.0,1
300bus.pwf,18,196,1.016319711551883,0.13959950326087964,0.1,0.03,0.0,0.0,1
300bus.pwf,18,197,1.0456084549001423,0.16319268836048403,0.43,0.14,0.0,0.0,1
300bus.pwf,18,198,1.100000010016783,0.20608570154691033,0.64,0.21,4.24,2.599999993739054,2
300bus.pwf,18,199,1.028310856436976,0.1253580205444584,0.35,0.12,0.0,0.0,1
300bus.pwf,18,200,1.0421091756467107,0.12264905022911914,0.27,0.12,0.0,0.0,1
300bus.pwf,18,201,0.940785140857319,0.12532070848453525,0.41,0.14,0.0,0.0,1
300bus.pwf,18,202,0.9404992965844355,0.14894048104381738,0.38,0.13,0.0,0.0,1
300bus.pwf,18,203,1.0702344896580098,0.18441419023389896,0.42,0.14,0.0,0.0,1
300bus.pwf,18,204,1.018069463212936,0.13299973651478314,0.72,0.24,0.0,0.0,1
300bus.pwf,18,205,1.041980268794342,0.12420297927264565,0.0,-0.05,0.0,0.0,1
300bus.pwf,18,206,1.0769040507436562,0.1119086864207146,0.12,0.02,0.0,0.0,1
300bus.pwf,18,207,1.100000005864748,0.11473355068071829,-0.21,-0.142,0.0,0.0,1
300bus.pwf,18,208,1.052012143993406,0.11846547689585536,0.07,0.02,0.0,0.0,1
300bus.pwf,18,209,1.021379670681827,0.13879225356444533,0.38,0.13,0.0,0.0,1
300bus.pwf,18,210,1.0436144902245472,0.15503139599753077,0.0,0.0,0.0,0.0,1
300bus.pwf,18,211,1.0439866063029706,0.17545445021023043,0.96,0.07,0.0,0.0,1
300bus.pwf,18,212,1.0246179032070923,0.19224760218145032,0.0,0.0,0.0,0.0,1
300bus.pwf,18,213,1.100000007016228,0.34845695333263726,0.0,0.0,2.72,1.0328030753153878,2
300bus.pwf,18,214,1.0620983181069885,0.26208985123270856,0.22,0.16,0.0,0.0,1
300bus.pwf,18,215,1.0382119625792108,0.2226847090059373,0.47,0.26,0.0,0.0,1
300bus.pwf,18,216,1.013608101899403,0.18952007876853827,1.76,1.05,0.0,0.0,1
300bus.pwf,18,217,1.030520936942125,0.1993010496454961,1.0,0.75,0.0,0.0,1
300bus.pwf,18,218,0.9834235914455713,0.1923973948200601,1.31,0.96,0.0,0.0,1
300bus.pwf,18,219,1.0717493141168346,0.21789875107094198,0.0,0.0,0.0,0.0,1
300bus.pwf,18,220,1.0053244057173851,0.20710156607561742,2.85,1.0,1.0,0.5999993784122037,2
300bus.pwf,18,221,0.9767703984446928,0.19280471534847687,1.71,0.7,4.5,3.1999998616155665,2
...
test_system.pwf,18,23,0.9974649156643752,0.0,0.0,0.0,0.3484262491057591,-0.061759632615742216,3
test_system.pwf,18,24,0.9945822983179332,-0.2291165268987317,0.34600000000000003,0.069,0.0,0.0,1
test_system.pwf,18,26,1.008605529639582,-0.12562707084282815,0.0,0.0,0.0,0.0,1
test_system.pwf,18,29,1.0015726748200706,-0.021799432322476855,0.0,0.0,0.0,0.0,1
300bus.pwf,19,1,1.0659448782887508,0.8582205401341026,0.9,0.49,0.0,0.0,1
300bus.pwf,19,2,1.0602062003347192,0.8776038901658707,0.56,0.15,0.0,0.0,1
300bus.pwf,19,3,1.0112218321136086,0.8723987443354136,0.2,0.0,0.0,0.0,1
300bus.pwf,19,4,1.1000000092135216,0.8212284888570768,0.0,0.0,0.0,0.0,1
300bus.pwf,19,5,1.0547891797030235,0.837628645660826,3.53,1.3,0.0,0.0,1
300bus.pwf,19,6,1.0483184050319996,0.8692585245768447,1.2,0.41,0.0,0.0,1
300bus.pwf,19,7,1.0133064022565728,0.8703735498991546,0.0,0.0,0.0,0.0,1
300bus.pwf,19,8,1.0436380224449995,0.7707655547896716,0.58,0.14,0.0,0.09999994099127699,2
300bus.pwf,19,9,1.0363120196411504,0.8003807770590562,0.96,0.43,0.0,0.0,1
300bus.pwf,19,10,1.0999993098018463,0.7849280888963501,1.48,0.33,0.0,0.19999992353272633,2
300bus.pwf,19,11,1.035621008773227,0.7870356018187997,0.83,0.21,0.0,0.0,1
300bus.pwf,19,12,1.0295322121869914,0.8471157144820096,0.0,0.0,0.0,0.0,1
300bus.pwf,19,13,0.9842773286468626,0.73829461657014,0.58,0.1,0.0,0.0,1
300bus.pwf,19,14,1.0357689457819514,0.6094236797127129,1.6,0.6,0.0,0.0,1
300bus.pwf,19,15,1.0856037480375134,0.5071430418827693,1.2670000000000001,0.23,0.0,0.0,1
300bus.pwf,19,16,1.0536817352930326,0.6195711022947302,0.0,0.0,0.0,0.0,1
300bus.pwf,19,17,1.0999998387120378,0.4325366471716681,5.61,2.2,0.0,0.0,1
300bus.pwf,19,19,1.0359143174077763,0.7582892390399217,0.0,0.0,0.0,0.0,1
300bus.pwf,19,20,0.9446313680872013,0.7032869287265571,5.95,1.2,0.0,0.199999882291878,2
300bus.pwf,19,21,1.036452619367734,0.7789262184334178,0.77,0.01,0.0,0.0,1
300bus.pwf,19,22,0.958394854960283,0.7069667447971304,0.81,0.23,0.0,0.0,1
300bus.pwf,19,23,1.075604881061938,0.7955784357813093,0.21,0.07,0.0,0.0,1
300bus.pwf,19,24,1.078520098966478,0.839869199872589,0.0,0.0,0.0,0.0,1
300bus.pwf,19,25,1.041469180036279,0.7554019313023435,0.45,0.12,0.0,0.0,1
300bus.pwf,19,26,1.00226825986175,0.7047069742434714,0.28,0.09,0.0,0.0,1
300bus.pwf,19,27,0.9543566199524384,0.6519871757559385,0.69,0.13,0.0,0.0,1
300bus.pwf,19,33,1.0303176964142735,0.30033513336114254,0.55,0.06,0.0,0.0,1
300bus.pwf,19,34,1.0579439875327723,0.4351749267810736,0.0,0.0,0.0,0.0,1
300bus.pwf,19,35,0.9952088353424652,0.1464907554744965,0.0,0.0,0.0,0.0,1
300bus.pwf,19,36,1.0952529610511945,0.19934524342422097,0.0,0.0,0.0,0.0,1
300bus.pwf,19,37,1.006424747588593,0.2765736216476147,0.85,0.32,0.0,0.0,1
300bus.pwf,19,38,1.0244052602677178,0.28574933871089564,1.55,0.18,0.0,0.0,1
300bus.pwf,19,39,1.0761585883722615,0.47830299637471757,0.0,0.0,0.0,0.0,1
300bus.pwf,19,40,1.0282271965122989,0.28175509884344047,0.46,-0.21,0.0,0.0,1
300bus.pwf,19,41,1.0283658480000821,0.3099681285516696,0.86,0.0,0.0,0.0,1
300bus.pwf,19,42,1.0647954240980442,0.45116329479174083,0.0,0.0,0.0,0.0,1
300bus.pwf,19,43,1.04513832413043,0.2603550311636717,0.39,0.09,0.0,0.0,1
300bus.pwf,19,44,1.0808118009989662,0.28014693417536246,1.95,0.29,0.0,0.0,1
300bus.pwf,19,45,0.9884782981938115,0.3379891104943955,0.0,0.0,0.0,0.0,1
300bus.pwf,19,46,1.0776640647658065,0.3787383089455617,0.0,0.0,0.0,0.0,1
300bus.pwf,19,47,1.0293866578135435,0.19436934448507626,0.58,0.11800000000000001,0.0,0.0,1
300bus.pwf,19,48,1.0458554571423275,0.27572714521811653,0.41,0.19,0.0,0.0,1
300bus.pwf,19,49,0.9018158317861797,0.0634699054779077,0.92,0.26,0.0,0.0,1
300bus.pwf,19,51,0.9658827711472665,0.21582906186579123,-0.05,0.05,0.0,0.0,1
300bus.pwf,19,52,0.9816614442158054,0.25101216191161396,0.61,0.28,0.0,0.0,1
300bus.pwf,19,53,1.041808657820436,0.24950790990126012,0.69,0.03,0.0,0.0,1
300bus.pwf,19,54,1.0525584266368266,0.27522799868382586,0.1,0.01,0.0,0.0,1
300bus.pwf,19,55,1.032116627582675,0.31702765438838615,0.22,0.1,0.0,0.0,1
300bus.pwf,19,57,1.0903911535152475,0.48564743139766053,0.98,0.2,0.0,0.0,1
300bus.pwf,19,58,1.0683512692249253,0.5548384482811961,0.14,0.01,0.0,0.0,1
300bus.pwf,19,59,1.0595831507991336,0.5779736715935503,2.18,1.06,0.0,0.0,1
300bus.pwf,19,60,1.028148777166082,0.4740752622531946,0.0,0.0,0.0,0.0,1
300bus.pwf,19,61,1.071047847497238,0.6112753296604893,2.27,1.1,0.0,0.0,1
300bus.pwf,19,62,1.0936742722066817,0.6743548413772325,0.0,0.0,0.0,0.0,1
300bus.pwf,19,63,1.0999999747159073,0.41051742101589256,0.7,0.3,0.0,0.24999955710037464,2
300bus.pwf,19,64,1.0361200960957209,0.4835772186422987,0.0,0.0,0.0,0.0,1
300bus.pwf,19,69,1.0319592815324292,0.14327347202294685,0.0,0.0,0.0,0.0,1
300bus.pwf,19,70,0.9594384267927762,-0.011096028999379712,0.56,0.2,0.0,0.0,1
300bus.pwf,19,71,0.9870734170388639,0.0795878272582769,1.16,0.38,0.0,0.0,1
300bus.pwf,19,72,0.990429386613309,0.11653371344561643,0.57,0.19,0.0,0.0,1
300bus.pwf,19,73,0.9749035467563334,0.15472542335777334,2.24,0.71,0.0,0.0,1
300bus.pwf,19,74,1.0689926314953604,0.20813174463896242,0.0,0.0,0.0,0.0,1
300bus.pwf,19,76,0.9818560735351011,0.1334112129020309,2.08,1.07,0.0,0.3499999259396925,2
300bus.pwf,19,77,1.0141358065580046,0.15592177621255243,0.74,0.28,0.0,0.0,1
300bus.pwf,19,78,1.0243086336380942,0.17004052784077678,0.0,0.0,0.0,0.0,1
300bus.pwf,19,79,1.0100949788712201,0.15751221524456518,0.48,0.14,0.0,0.0,1
300bus.pwf,19,80,1.0226858992957961,0.15268952169635008,0.28,0.07,0.0,0.0,1
300bus.pwf,19,81,1.0752254637049314,0.25653495661728476,0.0,0.0,0.0,0.0,1
300bus.pwf,19,84,1.0930086950716689,0.2789394220942653,0.37,0.13,3.75,2.399999929475738,2
300bus.pwf,19,85,1.0713859995461468,0.3116358879954984,0.0,0.0,0.0,0.0,1
300bus.pwf,19,86,1.0999999714601776,0.38713980351751975,0.0,0.0,0.0,0.0,1
300bus.pwf,19,87,1.0712775334354623,0.5426747082398733,0.0,0.0,0.0,0.0,1
300bus.pwf,19,88,1.1000000019338105,0.2242640844280828,0.0,0.0,0.0,0.0,1
300bus.pwf,19,89,1.0627176757105041,0.3957723407015997,0.442,0.0,0.0,0.0,1
300bus.pwf,19,90,1.0465327159373972,0.3415653829460925,0.66,0.0,0.0,0.0,1
300bus.pwf,19,91,1.100000006667294,0.4410775686635103,0.174,0.0,1.55,0.7483375362375227,2
300bus.pwf,19,92,1.1000000071001927,0.45076120703660394,0.158,0.0,2.9,0.3599216017715865,2
300bus.pwf,19,94,1.0043866346327677,0.5023354017059437,0.603,0.0,0.0,0.0,1
300bus.pwf,19,97,1.069702776802957,0.3819505834234018,0.39899999999999997,0.0,0.0,0.0,1
300bus.pwf,19,98,1.082718147565588,0.3578545463231165,0.667,0.0,0.68,0.5599993722812338,2
300bus.pwf,19,99,1.0991468273909026,0.25580225819844693,0.835,0.0,0.0,0.0,1
300bus.pwf,19,100,1.0653243067076643,0.366259306204557,0.0,0.0,0.0,0.0,1
300bus.pwf,19,102,1.0516216932248805,0.36056371382493524,0.778,0.0,0.0,0.0,1
300bus.pwf,19,103,1.081350606241765,0.37158114067881765,0.32,0.0,0.0,0.0,1
300bus.pwf,19,104,1.0660804009647689,0.316919385358114,0.086,0.0,0.0,0.0,1
300bus.pwf,19,105,1.078964194626969,0.3498459274380543,0.496,0.0,0.0,0.0,1
300bus.pwf,19,107,1.0722734623973647,0.29456412251015857,0.046,0.0,0.0,0.0,1
300bus.pwf,19,108,1.1000000057493367,0.25573187745186315,1.121,0.0,1.17,0.6029672720127899,2
300bus.pwf,19,109,1.0608527386825886,0.15646616491734108,0.307,0.0,0.0,0.0,1
300bus.pwf,19,110,1.064258243208448,0.17903260959266082,0.63,0.0,0.0,0.0,1
300bus.pwf,19,112,1.0488263059272374,0.10714249903367785,0.196,0.0,0.0,0.0,1
300bus.pwf,19,113,1.0327288324248776,0.16191707302768418,0.262,0.0,0.0,0.0,1
300bus.pwf,19,114,1.0490515154026454,0.10745835607628416,0.182,0.0,0.0,0.0,1
300bus.pwf,19,115,0.9201955989139322,1.1414084535768612,0.0,0.0,0.0,0.0,1
300bus.pwf,19,116,0.899999990547234,1.2346333262940858,0.0,0.0,0.0,0.0,1
300bus.pwf,19,117,0.988239926686901,1.3506734120767565,0.0,0.0,0.0,0.0,1
300bus.pwf,19,118,0.9799085793067766,1.3683987145890855,0.141,6.5,0.0,0.0,1
300bus.pwf,19,119,1.0607773700263337,1.60967941040093,0.0,0.0,19.3,10.475784823703684,2
300bus.pwf,19,120,1.011478474812326,1.5603620805819505,0.0,0.0,0.0,0.0,1
300bus.pwf,19,121,0.8999999908629637,1.197561304863217,5.35,0.55,0.0,0.0,1
300bus.pwf,19,122,0.8999999947980313,1.1025060980662162,2.291,0.11800000000000001,0.0,0.0,1
300bus.pwf,19,123,0.9482288787115974,1.0088024295232,0.78,0.013999999999999999,0.0,0.0,1
300bus.pwf,19,124,0.9788153106728876,1.1874769888484633,2.764,0.593,2.4,1.1999999959154284,2
300bus.pwf,19,125,0.9936923222918823,0.8502800694175631,5.148,0.8270000000000001,0.0,2.0000000095089185,2
300bus.pwf,19,126,0.9962590897952657,0.9267997382108218,0.579,0.051,0.0,0.0,1
300bus.pwf,19,127,1.0322415738124127,0.8527085837072398,3.8080000000000003,0.37,0.0,0.0,1
300bus.pwf,19,128,1.0483422156513946,0.88049158034278,0.0,0.0,0.0,0.0,1
300bus.pwf,19,129,1.0464596861994984,0.892114336868157,0.0,0.0,0.0,0.0,1
300bus.pwf,19,130,1.0727910967378,0.9418514945079967,0.0,0.0,0.0,0.0,1
300bus.pwf,19,131,1.004163783015322,0.8910338009945105,0.0,0.0,0.0,0.0,1
300bus.pwf,19,132,1.0845678573597315,0.9228031565719349,0.0,0.0,0.0,0.0,1
300bus.pwf,19,133,1.0454973601329822,0.8742696335324631,0.0,0.0,0.0,0.0,1
300bus.pwf,19,134,1.0638406365711477,0.8803998583487843,0.0,0.0,0.0,0.0,1
300bus.pwf,19,135,1.0652925820414516,0.8910309953777529,1.692,0.41600000000000004,0.0,0.0,1
300bus.pwf,19,136,1.0953551262544439,1.0028108190548701,0.552,0.182,0.0,0.0,1
300bus.pwf,19,137,1.0858501327319623,0.9411033609499749,2.736,0.998,0.0,0.0,1
300bus.pwf,19,138,1.1000000070279354,0.8808602842917679,8.267000000000001,1.3519999999999999,0.0,2.7745421735573874,2
300bus.pwf,19,139,1.0063718165864348,0.8854532056901842,5.95,0.833,0.0,0.0,1
300bus.pwf,19,140,1.0775338207529206,0.8889319601201758,3.877,1.147,0.0,0.0,1
300bus.pwf,19,141,1.05497594040213,0.923532580589746,1.45,0.58,2.81,0.749999640407447,2
300bus.pwf,19,142,1.0333493691661173,0.8167546685077725,0.565,0.245,0.0,0.0,1
300bus.pwf,19,143,1.0583563790642736,0.8843639229494354,0.895,0.355,6.96,2.999999512208804,2
300bus.pwf,19,144,1.1000000066433138,0.6910732626942361,0.0,0.0,0.0,0.0,1
300bus.pwf,19,145,0.9592659660718186,0.8436292628440992,0.24,0.14,0.0,0.0,1
300bus.pwf,19,146,1.0578981165782417,0.9546830481573644,0.0,0.0,0.84,0.34999913053396287,2
300bus.pwf,19,147,1.0999999902168975,1.0241228247746232,0.0,0.0,2.17,0.3939329790959305,2
300bus.pwf,19,148,0.9486601370377259,0.8224152309939726,0.63,0.25,0.0,0.0,1
300bus.pwf,19,149,1.0650233135132205,0.9184854480636905,0.0,0.0,1.03,0.49999956165105397,2
300bus.pwf,19,150,1.0008234096686184,0.8962569385890707,0.0,0.0,0.0,0.0,1
300bus.pwf,19,151,1.0238874956169823,0.9228791782312543,0.0,0.0,0.0,0.0,1
300bus.pwf,19,152,1.1000000063645796,1.1196594530379906,0.17,0.09,3.72,-0.051747744153212386,2
300bus.pwf,19,153,1.0401848295961567,1.130212385528332,0.0,0.0,2.16,0.8999995125777064,2
300bus.pwf,19,154,1.0113744528243673,0.9240451726376213,0.7,0.05,0.0,0.0,1
300bus.pwf,19,155,0.9000000252329807,1.0781433094221837,2.0,0.5,0.0,0.0,1
...